
*** ChampSim Multicore Out-of-Order Simulator ***

Warmup Instructions: 25000000
Simulation Instructions: 25000000
Number of CPUs: 1
LLC sets: 2048
LLC ways: 16
Off-chip DRAM Size: 4096 MB Channels: 1 Width: 256-bit Data Rate: 1600 MT/s

CPU 0 runs ../spec_cpu_traces/450.soplex-247B.champsimtrace.xz
CPU 0 Bimodal branch predictor
Heartbeat CPU 0 instructions: 10000000 cycles: 6007643 heartbeat IPC: 1.66455 cumulative IPC: 1.66455 (Simulation time: 0 hr 0 min 12 sec) 
Heartbeat CPU 0 instructions: 20000000 cycles: 11128341 heartbeat IPC: 1.95286 cumulative IPC: 1.79721 (Simulation time: 0 hr 0 min 22 sec) 

Warmup complete CPU 0 instructions: 25000001 cycles: 13581308 (Simulation time: 0 hr 0 min 27 sec) 

Heartbeat CPU 0 instructions: 30000001 cycles: 34871358 heartbeat IPC: 0.421177 cumulative IPC: 0.234851 (Simulation time: 0 hr 0 min 37 sec) 
Heartbeat CPU 0 instructions: 40000000 cycles: 74685541 heartbeat IPC: 0.251167 cumulative IPC: 0.245482 (Simulation time: 0 hr 0 min 53 sec) 
Heartbeat CPU 0 instructions: 50000001 cycles: 114517520 heartbeat IPC: 0.251055 cumulative IPC: 0.247681 (Simulation time: 0 hr 1 min 10 sec) 
Finished CPU 0 instructions: 25000000 cycles: 100936212 cumulative IPC: 0.247681 (Simulation time: 0 hr 1 min 10 sec) 

CPU 0 Branch Prediction Accuracy: 95.0343% MPKI: 9.0128

ChampSim completed all CPUs

Region of Interest Statistics

CPU 0 cumulative IPC: 0.247681 instructions: 25000000 cycles: 100936212
L1D TOTAL     ACCESS:    5851323  HIT:    4580691  MISS:    1270632
L1D LOAD      ACCESS:    4615485  HIT:    3498921  MISS:    1116564
L1D RFO       ACCESS:    1235838  HIT:    1081770  MISS:     154068
L1D PREFETCH  ACCESS:          0  HIT:          0  MISS:          0
L1D WRITEBACK ACCESS:          0  HIT:          0  MISS:          0
L1D PREFETCH  REQUESTED:          0  ISSUED:          0  USEFUL:          0  USELESS:          0
L1I TOTAL     ACCESS:    5807127  HIT:    5807093  MISS:         34
L1I LOAD      ACCESS:    5807127  HIT:    5807093  MISS:         34
L1I RFO       ACCESS:          0  HIT:          0  MISS:          0
L1I PREFETCH  ACCESS:          0  HIT:          0  MISS:          0
L1I WRITEBACK ACCESS:          0  HIT:          0  MISS:          0
L1I PREFETCH  REQUESTED:          0  ISSUED:          0  USEFUL:          0  USELESS:          0
LLC TOTAL     ACCESS:    1874628  HIT:    1041074  MISS:     833554
LLC LOAD      ACCESS:    1116548  HIT:     396036  MISS:     720512
LLC RFO       ACCESS:     154062  HIT:      58705  MISS:      95357
LLC PREFETCH  ACCESS:      47854  HIT:      30175  MISS:      17679
LLC WRITEBACK ACCESS:     556164  HIT:     556158  MISS:          6
LLC PREFETCH  REQUESTED:      69395  ISSUED:      59946  USEFUL:      17716  USELESS:        112
Major fault: 0 Minor fault: 7780

DRAM Statistics
 CHANNEL 0
 RQ ROW_BUFFER_HIT:          0  ROW_BUFFER_MISS:          0
 DBUS_CONGESTED:          0
 WQ ROW_BUFFER_HIT:          0  ROW_BUFFER_MISS:          0  FULL:          0


------------------------------------

=== CPU 0 Total Stats ===
* CPU 0 Total Accesses: 1116548
* CPU 0 Total Misses: 720512
* CPU 0 Total Prefetches: 17679
* CPU 0 Total Prefetch Hits: 17562
* CPU 0 Total Non-useful Prefetches: 88
* CPU 0 Total Undecided Prefetches: 29

=== CPU 0 ROI Stats ===
* CPU 0 ROI Accesses: 1116548
* CPU 0 ROI Misses: 720512
* CPU 0 ROI Prefetches: 17679
* CPU 0 ROI Prefetch Hits: 17562
* CPU 0 ROI Non-useful Prefetches: 88
* CPU 0 ROI Undecided Prefetches: 29

