
*** ChampSim Multicore Out-of-Order Simulator ***

Warmup Instructions: 25000000
Simulation Instructions: 25000000
Number of CPUs: 1
LLC sets: 2048
LLC ways: 16
Off-chip DRAM Size: 4096 MB Channels: 1 Width: 256-bit Data Rate: 1600 MT/s

CPU 0 runs ../spec_cpu_traces/620.omnetpp_s-141B.champsimtrace.xz
CPU 0 Bimodal branch predictor
Heartbeat CPU 0 instructions: 10000000 cycles: 7635440 heartbeat IPC: 1.30968 cumulative IPC: 1.30968 (Simulation time: 0 hr 0 min 13 sec) 
Heartbeat CPU 0 instructions: 20000000 cycles: 15313728 heartbeat IPC: 1.30237 cumulative IPC: 1.30602 (Simulation time: 0 hr 0 min 27 sec) 

Warmup complete CPU 0 instructions: 25000002 cycles: 19188178 (Simulation time: 0 hr 0 min 34 sec) 

Heartbeat CPU 0 instructions: 30000003 cycles: 38295003 heartbeat IPC: 0.435137 cumulative IPC: 0.261687 (Simulation time: 0 hr 0 min 43 sec) 
Heartbeat CPU 0 instructions: 40000000 cycles: 76886013 heartbeat IPC: 0.259128 cumulative IPC: 0.259975 (Simulation time: 0 hr 1 min 3 sec) 
Heartbeat CPU 0 instructions: 50000000 cycles: 115771826 heartbeat IPC: 0.257163 cumulative IPC: 0.258843 (Simulation time: 0 hr 1 min 23 sec) 
Finished CPU 0 instructions: 25000000 cycles: 96583659 cumulative IPC: 0.258843 (Simulation time: 0 hr 1 min 23 sec) 

CPU 0 Branch Prediction Accuracy: 92.5829% MPKI: 11.0765

ChampSim completed all CPUs

Region of Interest Statistics

CPU 0 cumulative IPC: 0.258843 instructions: 25000000 cycles: 96583659
L1D TOTAL     ACCESS:   11546634  HIT:   11102345  MISS:     444289
L1D LOAD      ACCESS:    7040322  HIT:    6653324  MISS:     386998
L1D RFO       ACCESS:    4506312  HIT:    4449021  MISS:      57291
L1D PREFETCH  ACCESS:          0  HIT:          0  MISS:          0
L1D WRITEBACK ACCESS:          0  HIT:          0  MISS:          0
L1D PREFETCH  REQUESTED:          0  ISSUED:          0  USEFUL:          0  USELESS:          0
L1I TOTAL     ACCESS:    6630812  HIT:    6630453  MISS:        359
L1I LOAD      ACCESS:    6630812  HIT:    6630453  MISS:        359
L1I RFO       ACCESS:          0  HIT:          0  MISS:          0
L1I PREFETCH  ACCESS:          0  HIT:          0  MISS:          0
L1I WRITEBACK ACCESS:          0  HIT:          0  MISS:          0
L1I PREFETCH  REQUESTED:          0  ISSUED:          0  USEFUL:          0  USELESS:          0
LLC TOTAL     ACCESS:     684804  HIT:     418243  MISS:     266561
LLC LOAD      ACCESS:     387350  HIT:     152264  MISS:     235086
LLC RFO       ACCESS:      57289  HIT:      27098  MISS:      30191
LLC PREFETCH  ACCESS:      20904  HIT:      19684  MISS:       1220
LLC WRITEBACK ACCESS:     219261  HIT:     219197  MISS:         64
LLC PREFETCH  REQUESTED:      39849  ISSUED:      39156  USEFUL:        767  USELESS:       1124
Major fault: 0 Minor fault: 45104

DRAM Statistics
 CHANNEL 0
 RQ ROW_BUFFER_HIT:          0  ROW_BUFFER_MISS:          0
 DBUS_CONGESTED:          0
 WQ ROW_BUFFER_HIT:          0  ROW_BUFFER_MISS:          0  FULL:          0


------------------------------------

=== CPU 0 Total Stats ===
* CPU 0 Total Accesses: 387350
* CPU 0 Total Misses: 235086
* CPU 0 Total Prefetches: 1220
* CPU 0 Total Prefetch Hits: 469
* CPU 0 Total Non-useful Prefetches: 667
* CPU 0 Total Undecided Prefetches: 84

=== CPU 0 ROI Stats ===
* CPU 0 ROI Accesses: 387350
* CPU 0 ROI Misses: 235086
* CPU 0 ROI Prefetches: 1220
* CPU 0 ROI Prefetch Hits: 469
* CPU 0 ROI Non-useful Prefetches: 667
* CPU 0 ROI Undecided Prefetches: 84

