
*** ChampSim Multicore Out-of-Order Simulator ***

Warmup Instructions: 25000000
Simulation Instructions: 25000000
Number of CPUs: 1
LLC sets: 2048
LLC ways: 16
Off-chip DRAM Size: 4096 MB Channels: 1 Width: 256-bit Data Rate: 1600 MT/s

CPU 0 runs ../ipc1_public/server_001.champsimtrace.xz
CPU 0 Bimodal branch predictor
Heartbeat CPU 0 instructions: 10000001 cycles: 4040860 heartbeat IPC: 2.47472 cumulative IPC: 2.47472 (Simulation time: 0 hr 0 min 12 sec) 
Heartbeat CPU 0 instructions: 20000000 cycles: 8195456 heartbeat IPC: 2.40697 cumulative IPC: 2.44038 (Simulation time: 0 hr 0 min 24 sec) 

Warmup complete CPU 0 instructions: 25000004 cycles: 10229422 (Simulation time: 0 hr 0 min 29 sec) 

Heartbeat CPU 0 instructions: 30000003 cycles: 16652678 heartbeat IPC: 1.18242 cumulative IPC: 0.778421 (Simulation time: 0 hr 0 min 36 sec) 
Heartbeat CPU 0 instructions: 40000000 cycles: 31088138 heartbeat IPC: 0.692738 cumulative IPC: 0.719124 (Simulation time: 0 hr 0 min 51 sec) 
Heartbeat CPU 0 instructions: 50000001 cycles: 44674228 heartbeat IPC: 0.736047 cumulative IPC: 0.725799 (Simulation time: 0 hr 1 min 6 sec) 
Finished CPU 0 instructions: 25000001 cycles: 34444807 cumulative IPC: 0.725799 (Simulation time: 0 hr 1 min 6 sec) 

CPU 0 Branch Prediction Accuracy: 95.5367% MPKI: 7.61556

ChampSim completed all CPUs

Region of Interest Statistics

CPU 0 cumulative IPC: 0.725799 instructions: 25000001 cycles: 34444807
L1D TOTAL     ACCESS:    6410416  HIT:    6200339  MISS:     210077
L1D LOAD      ACCESS:    3781478  HIT:    3623652  MISS:     157826
L1D RFO       ACCESS:    2628938  HIT:    2576687  MISS:      52251
L1D PREFETCH  ACCESS:          0  HIT:          0  MISS:          0
L1D WRITEBACK ACCESS:          0  HIT:          0  MISS:          0
L1D PREFETCH  REQUESTED:          0  ISSUED:          0  USEFUL:          0  USELESS:          0
L1I TOTAL     ACCESS:    5469881  HIT:    5368994  MISS:     100887
L1I LOAD      ACCESS:    5469881  HIT:    5368994  MISS:     100887
L1I RFO       ACCESS:          0  HIT:          0  MISS:          0
L1I PREFETCH  ACCESS:          0  HIT:          0  MISS:          0
L1I WRITEBACK ACCESS:          0  HIT:          0  MISS:          0
L1I PREFETCH  REQUESTED:          0  ISSUED:          0  USEFUL:          0  USELESS:          0
LLC TOTAL     ACCESS:     518474  HIT:     400224  MISS:     118250
LLC LOAD      ACCESS:     258712  HIT:     191151  MISS:      67561
LLC RFO       ACCESS:      52249  HIT:      11676  MISS:      40573
LLC PREFETCH  ACCESS:     103343  HIT:      93227  MISS:      10116
LLC WRITEBACK ACCESS:     104170  HIT:     104170  MISS:          0
LLC PREFETCH  REQUESTED:     190580  ISSUED:     167225  USEFUL:      16515  USELESS:        142
Major fault: 0 Minor fault: 10188

DRAM Statistics
 CHANNEL 0
 RQ ROW_BUFFER_HIT:          0  ROW_BUFFER_MISS:          0
 DBUS_CONGESTED:          0
 WQ ROW_BUFFER_HIT:          0  ROW_BUFFER_MISS:          0  FULL:          0


------------------------------------

=== CPU 0 Total Stats ===
* CPU 0 Total Accesses: 258713
* CPU 0 Total Misses: 67562
* CPU 0 Total Prefetches: 10116
* CPU 0 Total Prefetch Hits: 9907
* CPU 0 Total Non-useful Prefetches: 99
* CPU 0 Total Undecided Prefetches: 110

=== CPU 0 ROI Stats ===
* CPU 0 ROI Accesses: 258713
* CPU 0 ROI Misses: 67562
* CPU 0 ROI Prefetches: 10116
* CPU 0 ROI Prefetch Hits: 9907
* CPU 0 ROI Non-useful Prefetches: 99
* CPU 0 ROI Undecided Prefetches: 110

