
*** ChampSim Multicore Out-of-Order Simulator ***

Warmup Instructions: 25000000
Simulation Instructions: 25000000
Number of CPUs: 1
LLC sets: 2048
LLC ways: 16
Off-chip DRAM Size: 4096 MB Channels: 1 Width: 256-bit Data Rate: 1600 MT/s

CPU 0 runs ../spec_cpu_traces/450.soplex-247B.champsimtrace.xz
CPU 0 Bimodal branch predictor
Heartbeat CPU 0 instructions: 10000000 cycles: 6007613 heartbeat IPC: 1.66455 cumulative IPC: 1.66455 (Simulation time: 0 hr 0 min 12 sec) 
Heartbeat CPU 0 instructions: 20000000 cycles: 11127859 heartbeat IPC: 1.95303 cumulative IPC: 1.79729 (Simulation time: 0 hr 0 min 22 sec) 

Warmup complete CPU 0 instructions: 25000001 cycles: 13579262 (Simulation time: 0 hr 0 min 27 sec) 

Heartbeat CPU 0 instructions: 30000001 cycles: 34674170 heartbeat IPC: 0.424695 cumulative IPC: 0.237024 (Simulation time: 0 hr 0 min 37 sec) 
Heartbeat CPU 0 instructions: 40000000 cycles: 74349197 heartbeat IPC: 0.252048 cumulative IPC: 0.246833 (Simulation time: 0 hr 0 min 53 sec) 
Heartbeat CPU 0 instructions: 50000001 cycles: 114043004 heartbeat IPC: 0.251929 cumulative IPC: 0.248846 (Simulation time: 0 hr 1 min 10 sec) 
Finished CPU 0 instructions: 25000000 cycles: 100463742 cumulative IPC: 0.248846 (Simulation time: 0 hr 1 min 10 sec) 

CPU 0 Branch Prediction Accuracy: 95.0343% MPKI: 9.0128

ChampSim completed all CPUs

Region of Interest Statistics

CPU 0 cumulative IPC: 0.248846 instructions: 25000000 cycles: 100463742
L1D TOTAL     ACCESS:    5855879  HIT:    4585254  MISS:    1270625
L1D LOAD      ACCESS:    4620081  HIT:    3503524  MISS:    1116557
L1D RFO       ACCESS:    1235798  HIT:    1081730  MISS:     154068
L1D PREFETCH  ACCESS:          0  HIT:          0  MISS:          0
L1D WRITEBACK ACCESS:          0  HIT:          0  MISS:          0
L1D PREFETCH  REQUESTED:          0  ISSUED:          0  USEFUL:          0  USELESS:          0
L1I TOTAL     ACCESS:    5806540  HIT:    5806506  MISS:         34
L1I LOAD      ACCESS:    5806540  HIT:    5806506  MISS:         34
L1I RFO       ACCESS:          0  HIT:          0  MISS:          0
L1I PREFETCH  ACCESS:          0  HIT:          0  MISS:          0
L1I WRITEBACK ACCESS:          0  HIT:          0  MISS:          0
L1I PREFETCH  REQUESTED:          0  ISSUED:          0  USEFUL:          0  USELESS:          0
LLC TOTAL     ACCESS:    1910579  HIT:    1075813  MISS:     834766
LLC LOAD      ACCESS:    1116543  HIT:     400561  MISS:     715982
LLC RFO       ACCESS:     154062  HIT:      58369  MISS:      95693
LLC PREFETCH  ACCESS:      83814  HIT:      60729  MISS:      23085
LLC WRITEBACK ACCESS:     556160  HIT:     556154  MISS:          6
LLC PREFETCH  REQUESTED:     187520  ISSUED:     157086  USEFUL:      28786  USELESS:       1608
Major fault: 0 Minor fault: 7780

DRAM Statistics
 CHANNEL 0
 RQ ROW_BUFFER_HIT:          0  ROW_BUFFER_MISS:          0
 DBUS_CONGESTED:          0
 WQ ROW_BUFFER_HIT:          0  ROW_BUFFER_MISS:          0  FULL:          0


------------------------------------

=== CPU 0 Total Stats ===
* CPU 0 Total Accesses: 1116543
* CPU 0 Total Misses: 715982
* CPU 0 Total Prefetches: 23085
* CPU 0 Total Prefetch Hits: 22056
* CPU 0 Total Non-useful Prefetches: 973
* CPU 0 Total Undecided Prefetches: 56

=== CPU 0 ROI Stats ===
* CPU 0 ROI Accesses: 1116543
* CPU 0 ROI Misses: 715982
* CPU 0 ROI Prefetches: 23085
* CPU 0 ROI Prefetch Hits: 22056
* CPU 0 ROI Non-useful Prefetches: 973
* CPU 0 ROI Undecided Prefetches: 56

