
*** ChampSim Multicore Out-of-Order Simulator ***

Warmup Instructions: 25000000
Simulation Instructions: 25000000
Number of CPUs: 1
LLC sets: 2048
LLC ways: 16
Off-chip DRAM Size: 4096 MB Channels: 1 Width: 256-bit Data Rate: 1600 MT/s

CPU 0 runs ../ipc1_public/server_001.champsimtrace.xz
CPU 0 Bimodal branch predictor
Heartbeat CPU 0 instructions: 10000001 cycles: 4040861 heartbeat IPC: 2.47472 cumulative IPC: 2.47472 (Simulation time: 0 hr 0 min 12 sec) 
Heartbeat CPU 0 instructions: 20000000 cycles: 8195444 heartbeat IPC: 2.40698 cumulative IPC: 2.44038 (Simulation time: 0 hr 0 min 24 sec) 

Warmup complete CPU 0 instructions: 25000004 cycles: 10229410 (Simulation time: 0 hr 0 min 30 sec) 

Heartbeat CPU 0 instructions: 30000003 cycles: 16650429 heartbeat IPC: 1.18273 cumulative IPC: 0.778692 (Simulation time: 0 hr 0 min 38 sec) 
Heartbeat CPU 0 instructions: 40000000 cycles: 31083119 heartbeat IPC: 0.692871 cumulative IPC: 0.719296 (Simulation time: 0 hr 0 min 52 sec) 
Heartbeat CPU 0 instructions: 50000001 cycles: 44666695 heartbeat IPC: 0.736183 cumulative IPC: 0.725957 (Simulation time: 0 hr 1 min 7 sec) 
Finished CPU 0 instructions: 25000001 cycles: 34437286 cumulative IPC: 0.725957 (Simulation time: 0 hr 1 min 7 sec) 

CPU 0 Branch Prediction Accuracy: 95.5367% MPKI: 7.61556

ChampSim completed all CPUs

Region of Interest Statistics

CPU 0 cumulative IPC: 0.725957 instructions: 25000001 cycles: 34437286
L1D TOTAL     ACCESS:    6410422  HIT:    6200344  MISS:     210078
L1D LOAD      ACCESS:    3781484  HIT:    3623658  MISS:     157826
L1D RFO       ACCESS:    2628938  HIT:    2576686  MISS:      52252
L1D PREFETCH  ACCESS:          0  HIT:          0  MISS:          0
L1D WRITEBACK ACCESS:          0  HIT:          0  MISS:          0
L1D PREFETCH  REQUESTED:          0  ISSUED:          0  USEFUL:          0  USELESS:          0
L1I TOTAL     ACCESS:    5469875  HIT:    5368988  MISS:     100887
L1I LOAD      ACCESS:    5469875  HIT:    5368988  MISS:     100887
L1I RFO       ACCESS:          0  HIT:          0  MISS:          0
L1I PREFETCH  ACCESS:          0  HIT:          0  MISS:          0
L1I WRITEBACK ACCESS:          0  HIT:          0  MISS:          0
L1I PREFETCH  REQUESTED:          0  ISSUED:          0  USEFUL:          0  USELESS:          0
LLC TOTAL     ACCESS:     519076  HIT:     400863  MISS:     118213
LLC LOAD      ACCESS:     258712  HIT:     191196  MISS:      67516
LLC RFO       ACCESS:      52250  HIT:      11677  MISS:      40573
LLC PREFETCH  ACCESS:     103943  HIT:      93819  MISS:      10124
LLC WRITEBACK ACCESS:     104171  HIT:     104171  MISS:          0
LLC PREFETCH  REQUESTED:     192768  ISSUED:     168588  USEFUL:      16556  USELESS:        143
Major fault: 0 Minor fault: 10188

DRAM Statistics
 CHANNEL 0
 RQ ROW_BUFFER_HIT:          0  ROW_BUFFER_MISS:          0
 DBUS_CONGESTED:          0
 WQ ROW_BUFFER_HIT:          0  ROW_BUFFER_MISS:          0  FULL:          0


------------------------------------

=== CPU 0 Total Stats ===
* CPU 0 Total Accesses: 258713
* CPU 0 Total Misses: 67517
* CPU 0 Total Prefetches: 10124
* CPU 0 Total Prefetch Hits: 9914
* CPU 0 Total Non-useful Prefetches: 100
* CPU 0 Total Undecided Prefetches: 110

=== CPU 0 ROI Stats ===
* CPU 0 ROI Accesses: 258713
* CPU 0 ROI Misses: 67517
* CPU 0 ROI Prefetches: 10124
* CPU 0 ROI Prefetch Hits: 9914
* CPU 0 ROI Non-useful Prefetches: 100
* CPU 0 ROI Undecided Prefetches: 110

