
*** ChampSim Multicore Out-of-Order Simulator ***

Warmup Instructions: 25000000
Simulation Instructions: 25000000
Number of CPUs: 1
LLC sets: 2048
LLC ways: 16
Off-chip DRAM Size: 4096 MB Channels: 1 Width: 256-bit Data Rate: 1600 MT/s

CPU 0 runs ../ipc1_public/client_001.champsimtrace.xz
CPU 0 Bimodal branch predictor
Heartbeat CPU 0 instructions: 10000000 cycles: 4263304 heartbeat IPC: 2.3456 cumulative IPC: 2.3456 (Simulation time: 0 hr 0 min 11 sec) 
Heartbeat CPU 0 instructions: 20000000 cycles: 8768881 heartbeat IPC: 2.21947 cumulative IPC: 2.28079 (Simulation time: 0 hr 0 min 22 sec) 

Warmup complete CPU 0 instructions: 25000001 cycles: 10760500 (Simulation time: 0 hr 0 min 28 sec) 

Heartbeat CPU 0 instructions: 30000000 cycles: 17494177 heartbeat IPC: 1.14609 cumulative IPC: 0.742536 (Simulation time: 0 hr 0 min 35 sec) 
Heartbeat CPU 0 instructions: 40000000 cycles: 29750074 heartbeat IPC: 0.815934 cumulative IPC: 0.789907 (Simulation time: 0 hr 0 min 49 sec) 
Heartbeat CPU 0 instructions: 50000002 cycles: 41283134 heartbeat IPC: 0.867073 cumulative IPC: 0.819064 (Simulation time: 0 hr 1 min 3 sec) 
Finished CPU 0 instructions: 25000001 cycles: 30522634 cumulative IPC: 0.819064 (Simulation time: 0 hr 1 min 3 sec) 

CPU 0 Branch Prediction Accuracy: 93.4235% MPKI: 11.3852

ChampSim completed all CPUs

Region of Interest Statistics

CPU 0 cumulative IPC: 0.819064 instructions: 25000001 cycles: 30522634
L1D TOTAL     ACCESS:    6815990  HIT:    6399558  MISS:     416432
L1D LOAD      ACCESS:    4778820  HIT:    4402538  MISS:     376282
L1D RFO       ACCESS:    2037170  HIT:    1997020  MISS:      40150
L1D PREFETCH  ACCESS:          0  HIT:          0  MISS:          0
L1D WRITEBACK ACCESS:          0  HIT:          0  MISS:          0
L1D PREFETCH  REQUESTED:          0  ISSUED:          0  USEFUL:          0  USELESS:          0
L1I TOTAL     ACCESS:    5491277  HIT:    5438401  MISS:      52876
L1I LOAD      ACCESS:    5491277  HIT:    5438401  MISS:      52876
L1I RFO       ACCESS:          0  HIT:          0  MISS:          0
L1I PREFETCH  ACCESS:          0  HIT:          0  MISS:          0
L1I WRITEBACK ACCESS:          0  HIT:          0  MISS:          0
L1I PREFETCH  REQUESTED:          0  ISSUED:          0  USEFUL:          0  USELESS:          0
LLC TOTAL     ACCESS:     711804  HIT:     637406  MISS:      74398
LLC LOAD      ACCESS:     429157  HIT:     380950  MISS:      48207
LLC RFO       ACCESS:      40150  HIT:      15610  MISS:      24540
LLC PREFETCH  ACCESS:     157980  HIT:     156329  MISS:       1651
LLC WRITEBACK ACCESS:      84517  HIT:      84517  MISS:          0
LLC PREFETCH  REQUESTED:     265723  ISSUED:     216894  USEFUL:       2406  USELESS:         33
Major fault: 0 Minor fault: 2679

DRAM Statistics
 CHANNEL 0
 RQ ROW_BUFFER_HIT:          0  ROW_BUFFER_MISS:          0
 DBUS_CONGESTED:          0
 WQ ROW_BUFFER_HIT:          0  ROW_BUFFER_MISS:          0  FULL:          0


------------------------------------

=== CPU 0 Total Stats ===
* CPU 0 Total Accesses: 429157
* CPU 0 Total Misses: 48207
* CPU 0 Total Prefetches: 1651
* CPU 0 Total Prefetch Hits: 1524
* CPU 0 Total Non-useful Prefetches: 33
* CPU 0 Total Undecided Prefetches: 94

=== CPU 0 ROI Stats ===
* CPU 0 ROI Accesses: 429157
* CPU 0 ROI Misses: 48207
* CPU 0 ROI Prefetches: 1651
* CPU 0 ROI Prefetch Hits: 1524
* CPU 0 ROI Non-useful Prefetches: 33
* CPU 0 ROI Undecided Prefetches: 94

