
*** ChampSim Multicore Out-of-Order Simulator ***

Warmup Instructions: 25000000
Simulation Instructions: 25000000
Number of CPUs: 1
LLC sets: 2048
LLC ways: 16
Off-chip DRAM Size: 4096 MB Channels: 1 Width: 256-bit Data Rate: 1600 MT/s

CPU 0 runs ../spec_cpu_traces/470.lbm-1274B.champsimtrace.xz
CPU 0 Bimodal branch predictor
Heartbeat CPU 0 instructions: 10000003 cycles: 3765366 heartbeat IPC: 2.65579 cumulative IPC: 2.65579 (Simulation time: 0 hr 0 min 12 sec) 
Heartbeat CPU 0 instructions: 20000000 cycles: 7526213 heartbeat IPC: 2.65897 cumulative IPC: 2.65738 (Simulation time: 0 hr 0 min 24 sec) 

Warmup complete CPU 0 instructions: 25000003 cycles: 9411017 (Simulation time: 0 hr 0 min 30 sec) 

Heartbeat CPU 0 instructions: 30000002 cycles: 18013789 heartbeat IPC: 0.953509 cumulative IPC: 0.581208 (Simulation time: 0 hr 0 min 38 sec) 
Heartbeat CPU 0 instructions: 40000000 cycles: 35274360 heartbeat IPC: 0.579355 cumulative IPC: 0.579971 (Simulation time: 0 hr 0 min 53 sec) 
Heartbeat CPU 0 instructions: 50000001 cycles: 52547495 heartbeat IPC: 0.578934 cumulative IPC: 0.579556 (Simulation time: 0 hr 1 min 8 sec) 
Finished CPU 0 instructions: 25000002 cycles: 43136479 cumulative IPC: 0.579556 (Simulation time: 0 hr 1 min 8 sec) 

CPU 0 Branch Prediction Accuracy: 99.396% MPKI: 0.0838

ChampSim completed all CPUs

Region of Interest Statistics

CPU 0 cumulative IPC: 0.579556 instructions: 25000002 cycles: 43136479
L1D TOTAL     ACCESS:    4475891  HIT:    3323268  MISS:    1152623
L1D LOAD      ACCESS:    1965541  HIT:    1787893  MISS:     177648
L1D RFO       ACCESS:    2510350  HIT:    1535375  MISS:     974975
L1D PREFETCH  ACCESS:          0  HIT:          0  MISS:          0
L1D WRITEBACK ACCESS:          0  HIT:          0  MISS:          0
L1D PREFETCH  REQUESTED:          0  ISSUED:          0  USEFUL:          0  USELESS:          0
L1I TOTAL     ACCESS:    5838311  HIT:    5838311  MISS:          0
L1I LOAD      ACCESS:    5838311  HIT:    5838311  MISS:          0
L1I RFO       ACCESS:          0  HIT:          0  MISS:          0
L1I PREFETCH  ACCESS:          0  HIT:          0  MISS:          0
L1I WRITEBACK ACCESS:          0  HIT:          0  MISS:          0
L1I PREFETCH  REQUESTED:          0  ISSUED:          0  USEFUL:          0  USELESS:          0
LLC TOTAL     ACCESS:    2127812  HIT:    1417262  MISS:     710550
LLC LOAD      ACCESS:     177648  HIT:          0  MISS:     177648
LLC RFO       ACCESS:     974975  HIT:     442094  MISS:     532881
LLC PREFETCH  ACCESS:          0  HIT:          0  MISS:          0
LLC WRITEBACK ACCESS:     975189  HIT:     975168  MISS:         21
LLC PREFETCH  REQUESTED:         24  ISSUED:         24  USEFUL:          1  USELESS:          0
Major fault: 0 Minor fault: 11897

DRAM Statistics
 CHANNEL 0
 RQ ROW_BUFFER_HIT:          0  ROW_BUFFER_MISS:          0
 DBUS_CONGESTED:          0
 WQ ROW_BUFFER_HIT:          0  ROW_BUFFER_MISS:          0  FULL:          0


------------------------------------

=== CPU 0 Total Stats ===
* CPU 0 Total Accesses: 177648
* CPU 0 Total Misses: 177648
* CPU 0 Total Prefetches: 0
* CPU 0 Total Prefetch Hits: 0
* CPU 0 Total Non-useful Prefetches: 0
* CPU 0 Total Undecided Prefetches: 0

=== CPU 0 ROI Stats ===
* CPU 0 ROI Accesses: 177648
* CPU 0 ROI Misses: 177648
* CPU 0 ROI Prefetches: 0
* CPU 0 ROI Prefetch Hits: 0
* CPU 0 ROI Non-useful Prefetches: 0
* CPU 0 ROI Undecided Prefetches: 0

