
*** ChampSim Multicore Out-of-Order Simulator ***

Warmup Instructions: 25000000
Simulation Instructions: 25000000
Number of CPUs: 1
LLC sets: 2048
LLC ways: 16
Off-chip DRAM Size: 4096 MB Channels: 1 Width: 256-bit Data Rate: 1600 MT/s

CPU 0 runs ../ipc1_public/client_001.champsimtrace.xz
CPU 0 Bimodal branch predictor
Heartbeat CPU 0 instructions: 10000000 cycles: 4263304 heartbeat IPC: 2.3456 cumulative IPC: 2.3456 (Simulation time: 0 hr 0 min 11 sec) 
Heartbeat CPU 0 instructions: 20000000 cycles: 8768876 heartbeat IPC: 2.21947 cumulative IPC: 2.28079 (Simulation time: 0 hr 0 min 22 sec) 

Warmup complete CPU 0 instructions: 25000001 cycles: 10760495 (Simulation time: 0 hr 0 min 28 sec) 

Heartbeat CPU 0 instructions: 30000000 cycles: 17495792 heartbeat IPC: 1.14588 cumulative IPC: 0.742358 (Simulation time: 0 hr 0 min 35 sec) 
Heartbeat CPU 0 instructions: 40000000 cycles: 29755356 heartbeat IPC: 0.81569 cumulative IPC: 0.789687 (Simulation time: 0 hr 0 min 49 sec) 
Heartbeat CPU 0 instructions: 50000002 cycles: 41290969 heartbeat IPC: 0.866881 cumulative IPC: 0.818854 (Simulation time: 0 hr 1 min 2 sec) 
Finished CPU 0 instructions: 25000001 cycles: 30530474 cumulative IPC: 0.818854 (Simulation time: 0 hr 1 min 2 sec) 

CPU 0 Branch Prediction Accuracy: 93.4234% MPKI: 11.3854

ChampSim completed all CPUs

Region of Interest Statistics

CPU 0 cumulative IPC: 0.818854 instructions: 25000001 cycles: 30530474
L1D TOTAL     ACCESS:    6816007  HIT:    6399573  MISS:     416434
L1D LOAD      ACCESS:    4778830  HIT:    4402546  MISS:     376284
L1D RFO       ACCESS:    2037177  HIT:    1997027  MISS:      40150
L1D PREFETCH  ACCESS:          0  HIT:          0  MISS:          0
L1D WRITEBACK ACCESS:          0  HIT:          0  MISS:          0
L1D PREFETCH  REQUESTED:          0  ISSUED:          0  USEFUL:          0  USELESS:          0
L1I TOTAL     ACCESS:    5491312  HIT:    5438436  MISS:      52876
L1I LOAD      ACCESS:    5491312  HIT:    5438436  MISS:      52876
L1I RFO       ACCESS:          0  HIT:          0  MISS:          0
L1I PREFETCH  ACCESS:          0  HIT:          0  MISS:          0
L1I WRITEBACK ACCESS:          0  HIT:          0  MISS:          0
L1I PREFETCH  REQUESTED:          0  ISSUED:          0  USEFUL:          0  USELESS:          0
LLC TOTAL     ACCESS:     711231  HIT:     636917  MISS:      74314
LLC LOAD      ACCESS:     429159  HIT:     380884  MISS:      48275
LLC RFO       ACCESS:      40150  HIT:      15610  MISS:      24540
LLC PREFETCH  ACCESS:     157404  HIT:     155905  MISS:       1499
LLC WRITEBACK ACCESS:      84518  HIT:      84518  MISS:          0
LLC PREFETCH  REQUESTED:     262607  ISSUED:     214677  USEFUL:       2309  USELESS:         32
Major fault: 0 Minor fault: 2679

DRAM Statistics
 CHANNEL 0
 RQ ROW_BUFFER_HIT:          0  ROW_BUFFER_MISS:          0
 DBUS_CONGESTED:          0
 WQ ROW_BUFFER_HIT:          0  ROW_BUFFER_MISS:          0  FULL:          0


------------------------------------

=== CPU 0 Total Stats ===
* CPU 0 Total Accesses: 429160
* CPU 0 Total Misses: 48276
* CPU 0 Total Prefetches: 1499
* CPU 0 Total Prefetch Hits: 1460
* CPU 0 Total Non-useful Prefetches: 32
* CPU 0 Total Undecided Prefetches: 7

=== CPU 0 ROI Stats ===
* CPU 0 ROI Accesses: 429160
* CPU 0 ROI Misses: 48276
* CPU 0 ROI Prefetches: 1499
* CPU 0 ROI Prefetch Hits: 1460
* CPU 0 ROI Non-useful Prefetches: 32
* CPU 0 ROI Undecided Prefetches: 7

