
*** ChampSim Multicore Out-of-Order Simulator ***

Warmup Instructions: 25000000
Simulation Instructions: 25000000
Number of CPUs: 1
LLC sets: 2048
LLC ways: 16
Off-chip DRAM Size: 4096 MB Channels: 1 Width: 256-bit Data Rate: 1600 MT/s

CPU 0 runs ../ipc1_public/spec_gcc_001.champsimtrace.xz
CPU 0 Bimodal branch predictor
Heartbeat CPU 0 instructions: 10000002 cycles: 4474330 heartbeat IPC: 2.23497 cumulative IPC: 2.23497 (Simulation time: 0 hr 0 min 10 sec) 
Heartbeat CPU 0 instructions: 20000000 cycles: 8965420 heartbeat IPC: 2.22663 cumulative IPC: 2.23079 (Simulation time: 0 hr 0 min 21 sec) 

Warmup complete CPU 0 instructions: 25000004 cycles: 11184228 (Simulation time: 0 hr 0 min 26 sec) 

Heartbeat CPU 0 instructions: 30000003 cycles: 16928327 heartbeat IPC: 1.25582 cumulative IPC: 0.870458 (Simulation time: 0 hr 0 min 32 sec) 
Heartbeat CPU 0 instructions: 40000000 cycles: 28753796 heartbeat IPC: 0.845632 cumulative IPC: 0.853749 (Simulation time: 0 hr 0 min 46 sec) 
Heartbeat CPU 0 instructions: 50000001 cycles: 40618467 heartbeat IPC: 0.842838 cumulative IPC: 0.849351 (Simulation time: 0 hr 0 min 59 sec) 
Finished CPU 0 instructions: 25000001 cycles: 29434241 cumulative IPC: 0.849351 (Simulation time: 0 hr 0 min 59 sec) 

CPU 0 Branch Prediction Accuracy: 91.5318% MPKI: 20.1868

ChampSim completed all CPUs

Region of Interest Statistics

CPU 0 cumulative IPC: 0.849351 instructions: 25000001 cycles: 29434241
L1D TOTAL     ACCESS:    6923789  HIT:    6783871  MISS:     139918
L1D LOAD      ACCESS:    4251929  HIT:    4153470  MISS:      98459
L1D RFO       ACCESS:    2671860  HIT:    2630401  MISS:      41459
L1D PREFETCH  ACCESS:          0  HIT:          0  MISS:          0
L1D WRITEBACK ACCESS:          0  HIT:          0  MISS:          0
L1D PREFETCH  REQUESTED:          0  ISSUED:          0  USEFUL:          0  USELESS:          0
L1I TOTAL     ACCESS:    5903695  HIT:    5728482  MISS:     175213
L1I LOAD      ACCESS:    5903695  HIT:    5728482  MISS:     175213
L1I RFO       ACCESS:          0  HIT:          0  MISS:          0
L1I PREFETCH  ACCESS:          0  HIT:          0  MISS:          0
L1I WRITEBACK ACCESS:          0  HIT:          0  MISS:          0
L1I PREFETCH  REQUESTED:          0  ISSUED:          0  USEFUL:          0  USELESS:          0
LLC TOTAL     ACCESS:     521515  HIT:     491144  MISS:      30371
LLC LOAD      ACCESS:     273662  HIT:     255657  MISS:      18005
LLC RFO       ACCESS:      41457  HIT:      34649  MISS:       6808
LLC PREFETCH  ACCESS:     137159  HIT:     131602  MISS:       5557
LLC WRITEBACK ACCESS:      69237  HIT:      69236  MISS:          1
LLC PREFETCH  REQUESTED:     232231  ISSUED:     207305  USEFUL:       6426  USELESS:        304
Major fault: 0 Minor fault: 5183

DRAM Statistics
 CHANNEL 0
 RQ ROW_BUFFER_HIT:          0  ROW_BUFFER_MISS:          0
 DBUS_CONGESTED:          0
 WQ ROW_BUFFER_HIT:          0  ROW_BUFFER_MISS:          0  FULL:          0


------------------------------------

=== CPU 0 Total Stats ===
* CPU 0 Total Accesses: 273662
* CPU 0 Total Misses: 18005
* CPU 0 Total Prefetches: 5557
* CPU 0 Total Prefetch Hits: 5129
* CPU 0 Total Non-useful Prefetches: 238
* CPU 0 Total Undecided Prefetches: 190

=== CPU 0 ROI Stats ===
* CPU 0 ROI Accesses: 273662
* CPU 0 ROI Misses: 18005
* CPU 0 ROI Prefetches: 5557
* CPU 0 ROI Prefetch Hits: 5129
* CPU 0 ROI Non-useful Prefetches: 238
* CPU 0 ROI Undecided Prefetches: 190

