
*** ChampSim Multicore Out-of-Order Simulator ***

Warmup Instructions: 25000000
Simulation Instructions: 25000000
Number of CPUs: 1
LLC sets: 2048
LLC ways: 16
Off-chip DRAM Size: 4096 MB Channels: 1 Width: 256-bit Data Rate: 1600 MT/s

CPU 0 runs ../spec_cpu_traces/450.soplex-247B.champsimtrace.xz
CPU 0 Bimodal branch predictor
Heartbeat CPU 0 instructions: 10000000 cycles: 6007642 heartbeat IPC: 1.66455 cumulative IPC: 1.66455 (Simulation time: 0 hr 0 min 12 sec) 
Heartbeat CPU 0 instructions: 20000000 cycles: 11128364 heartbeat IPC: 1.95285 cumulative IPC: 1.79721 (Simulation time: 0 hr 0 min 22 sec) 

Warmup complete CPU 0 instructions: 25000001 cycles: 13581314 (Simulation time: 0 hr 0 min 27 sec) 

Heartbeat CPU 0 instructions: 30000001 cycles: 35272853 heartbeat IPC: 0.414173 cumulative IPC: 0.230505 (Simulation time: 0 hr 0 min 37 sec) 
Heartbeat CPU 0 instructions: 40000000 cycles: 75986133 heartbeat IPC: 0.24562 cumulative IPC: 0.240366 (Simulation time: 0 hr 0 min 53 sec) 
Heartbeat CPU 0 instructions: 50000001 cycles: 116652761 heartbeat IPC: 0.245902 cumulative IPC: 0.24255 (Simulation time: 0 hr 1 min 10 sec) 
Finished CPU 0 instructions: 25000000 cycles: 103071447 cumulative IPC: 0.24255 (Simulation time: 0 hr 1 min 10 sec) 

CPU 0 Branch Prediction Accuracy: 95.0343% MPKI: 9.0128

ChampSim completed all CPUs

Region of Interest Statistics

CPU 0 cumulative IPC: 0.24255 instructions: 25000000 cycles: 103071447
L1D TOTAL     ACCESS:    5848189  HIT:    4577564  MISS:    1270625
L1D LOAD      ACCESS:    4612315  HIT:    3495758  MISS:    1116557
L1D RFO       ACCESS:    1235874  HIT:    1081806  MISS:     154068
L1D PREFETCH  ACCESS:          0  HIT:          0  MISS:          0
L1D WRITEBACK ACCESS:          0  HIT:          0  MISS:          0
L1D PREFETCH  REQUESTED:          0  ISSUED:          0  USEFUL:          0  USELESS:          0
L1I TOTAL     ACCESS:    5809638  HIT:    5809604  MISS:         34
L1I LOAD      ACCESS:    5809638  HIT:    5809604  MISS:         34
L1I RFO       ACCESS:          0  HIT:          0  MISS:          0
L1I PREFETCH  ACCESS:          0  HIT:          0  MISS:          0
L1I WRITEBACK ACCESS:          0  HIT:          0  MISS:          0
L1I PREFETCH  REQUESTED:          0  ISSUED:          0  USEFUL:          0  USELESS:          0
LLC TOTAL     ACCESS:    1826766  HIT:     993453  MISS:     833313
LLC LOAD      ACCESS:    1116541  HIT:     378533  MISS:     738008
LLC RFO       ACCESS:     154062  HIT:      58763  MISS:      95299
LLC PREFETCH  ACCESS:          0  HIT:          0  MISS:          0
LLC WRITEBACK ACCESS:     556163  HIT:     556157  MISS:          6
LLC PREFETCH  REQUESTED:          0  ISSUED:          0  USEFUL:          0  USELESS:          0
Major fault: 0 Minor fault: 7780

DRAM Statistics
 CHANNEL 0
 RQ ROW_BUFFER_HIT:          0  ROW_BUFFER_MISS:          0
 DBUS_CONGESTED:          0
 WQ ROW_BUFFER_HIT:          0  ROW_BUFFER_MISS:          0  FULL:          0


------------------------------------

=== CPU 0 Total Stats ===
* CPU 0 Total Accesses: 1116541
* CPU 0 Total Misses: 738008
* CPU 0 Total Prefetches: 0
* CPU 0 Total Prefetch Hits: 0
* CPU 0 Total Non-useful Prefetches: 0
* CPU 0 Total Undecided Prefetches: 0

=== CPU 0 ROI Stats ===
* CPU 0 ROI Accesses: 1116541
* CPU 0 ROI Misses: 738008
* CPU 0 ROI Prefetches: 0
* CPU 0 ROI Prefetch Hits: 0
* CPU 0 ROI Non-useful Prefetches: 0
* CPU 0 ROI Undecided Prefetches: 0

