
*** ChampSim Multicore Out-of-Order Simulator ***

Warmup Instructions: 25000000
Simulation Instructions: 25000000
Number of CPUs: 1
LLC sets: 2048
LLC ways: 16
Off-chip DRAM Size: 4096 MB Channels: 1 Width: 256-bit Data Rate: 1600 MT/s

CPU 0 runs ../spec_cpu_traces/620.omnetpp_s-141B.champsimtrace.xz
CPU 0 Bimodal branch predictor
Heartbeat CPU 0 instructions: 10000000 cycles: 7635447 heartbeat IPC: 1.30968 cumulative IPC: 1.30968 (Simulation time: 0 hr 0 min 13 sec) 
Heartbeat CPU 0 instructions: 20000000 cycles: 15313738 heartbeat IPC: 1.30237 cumulative IPC: 1.30602 (Simulation time: 0 hr 0 min 27 sec) 

Warmup complete CPU 0 instructions: 25000002 cycles: 19188181 (Simulation time: 0 hr 0 min 33 sec) 

Heartbeat CPU 0 instructions: 30000003 cycles: 38311761 heartbeat IPC: 0.43482 cumulative IPC: 0.261457 (Simulation time: 0 hr 0 min 43 sec) 
Heartbeat CPU 0 instructions: 40000000 cycles: 76931900 heartbeat IPC: 0.258932 cumulative IPC: 0.259768 (Simulation time: 0 hr 1 min 3 sec) 
Heartbeat CPU 0 instructions: 50000000 cycles: 115861705 heartbeat IPC: 0.256873 cumulative IPC: 0.258602 (Simulation time: 0 hr 1 min 22 sec) 
Finished CPU 0 instructions: 25000000 cycles: 96673535 cumulative IPC: 0.258602 (Simulation time: 0 hr 1 min 22 sec) 

CPU 0 Branch Prediction Accuracy: 92.5829% MPKI: 11.0765

ChampSim completed all CPUs

Region of Interest Statistics

CPU 0 cumulative IPC: 0.258602 instructions: 25000000 cycles: 96673535
L1D TOTAL     ACCESS:   11546622  HIT:   11102332  MISS:     444290
L1D LOAD      ACCESS:    7040311  HIT:    6653312  MISS:     386999
L1D RFO       ACCESS:    4506311  HIT:    4449020  MISS:      57291
L1D PREFETCH  ACCESS:          0  HIT:          0  MISS:          0
L1D WRITEBACK ACCESS:          0  HIT:          0  MISS:          0
L1D PREFETCH  REQUESTED:          0  ISSUED:          0  USEFUL:          0  USELESS:          0
L1I TOTAL     ACCESS:    6630829  HIT:    6630470  MISS:        359
L1I LOAD      ACCESS:    6630829  HIT:    6630470  MISS:        359
L1I RFO       ACCESS:          0  HIT:          0  MISS:          0
L1I PREFETCH  ACCESS:          0  HIT:          0  MISS:          0
L1I WRITEBACK ACCESS:          0  HIT:          0  MISS:          0
L1I PREFETCH  REQUESTED:          0  ISSUED:          0  USEFUL:          0  USELESS:          0
LLC TOTAL     ACCESS:     663901  HIT:     398001  MISS:     265900
LLC LOAD      ACCESS:     387351  HIT:     151719  MISS:     235632
LLC RFO       ACCESS:      57289  HIT:      27088  MISS:      30201
LLC PREFETCH  ACCESS:          0  HIT:          0  MISS:          0
LLC WRITEBACK ACCESS:     219261  HIT:     219194  MISS:         67
LLC PREFETCH  REQUESTED:          0  ISSUED:          0  USEFUL:          0  USELESS:          0
Major fault: 0 Minor fault: 45104

DRAM Statistics
 CHANNEL 0
 RQ ROW_BUFFER_HIT:          0  ROW_BUFFER_MISS:          0
 DBUS_CONGESTED:          0
 WQ ROW_BUFFER_HIT:          0  ROW_BUFFER_MISS:          0  FULL:          0


------------------------------------

=== CPU 0 Total Stats ===
* CPU 0 Total Accesses: 387350
* CPU 0 Total Misses: 235631
* CPU 0 Total Prefetches: 0
* CPU 0 Total Prefetch Hits: 0
* CPU 0 Total Non-useful Prefetches: 0
* CPU 0 Total Undecided Prefetches: 0

=== CPU 0 ROI Stats ===
* CPU 0 ROI Accesses: 387350
* CPU 0 ROI Misses: 235631
* CPU 0 ROI Prefetches: 0
* CPU 0 ROI Prefetch Hits: 0
* CPU 0 ROI Non-useful Prefetches: 0
* CPU 0 ROI Undecided Prefetches: 0

