
*** ChampSim Multicore Out-of-Order Simulator ***

Warmup Instructions: 25000000
Simulation Instructions: 25000000
Number of CPUs: 1
LLC sets: 2048
LLC ways: 16
Off-chip DRAM Size: 4096 MB Channels: 1 Width: 256-bit Data Rate: 1600 MT/s

CPU 0 runs ../ipc1_public/spec_gcc_001.champsimtrace.xz
CPU 0 Bimodal branch predictor
Heartbeat CPU 0 instructions: 10000002 cycles: 4474331 heartbeat IPC: 2.23497 cumulative IPC: 2.23497 (Simulation time: 0 hr 0 min 10 sec) 
Heartbeat CPU 0 instructions: 20000000 cycles: 8965578 heartbeat IPC: 2.22655 cumulative IPC: 2.23075 (Simulation time: 0 hr 0 min 21 sec) 

Warmup complete CPU 0 instructions: 25000004 cycles: 11184479 (Simulation time: 0 hr 0 min 26 sec) 

Heartbeat CPU 0 instructions: 30000003 cycles: 17044265 heartbeat IPC: 1.23783 cumulative IPC: 0.853273 (Simulation time: 0 hr 0 min 32 sec) 
Heartbeat CPU 0 instructions: 40000000 cycles: 29118535 heartbeat IPC: 0.828207 cumulative IPC: 0.836397 (Simulation time: 0 hr 0 min 46 sec) 
Heartbeat CPU 0 instructions: 50000001 cycles: 41483909 heartbeat IPC: 0.80871 cumulative IPC: 0.825098 (Simulation time: 0 hr 0 min 59 sec) 
Finished CPU 0 instructions: 25000001 cycles: 30299432 cumulative IPC: 0.825098 (Simulation time: 0 hr 0 min 59 sec) 

CPU 0 Branch Prediction Accuracy: 91.5318% MPKI: 20.1868

ChampSim completed all CPUs

Region of Interest Statistics

CPU 0 cumulative IPC: 0.825098 instructions: 25000001 cycles: 30299432
L1D TOTAL     ACCESS:    6924446  HIT:    6784525  MISS:     139921
L1D LOAD      ACCESS:    4252424  HIT:    4153966  MISS:      98458
L1D RFO       ACCESS:    2672022  HIT:    2630559  MISS:      41463
L1D PREFETCH  ACCESS:          0  HIT:          0  MISS:          0
L1D WRITEBACK ACCESS:          0  HIT:          0  MISS:          0
L1D PREFETCH  REQUESTED:          0  ISSUED:          0  USEFUL:          0  USELESS:          0
L1I TOTAL     ACCESS:    5903285  HIT:    5728071  MISS:     175214
L1I LOAD      ACCESS:    5903285  HIT:    5728071  MISS:     175214
L1I RFO       ACCESS:          0  HIT:          0  MISS:          0
L1I PREFETCH  ACCESS:          0  HIT:          0  MISS:          0
L1I WRITEBACK ACCESS:          0  HIT:          0  MISS:          0
L1I PREFETCH  REQUESTED:          0  ISSUED:          0  USEFUL:          0  USELESS:          0
LLC TOTAL     ACCESS:     384364  HIT:     354871  MISS:      29493
LLC LOAD      ACCESS:     273662  HIT:     250801  MISS:      22861
LLC RFO       ACCESS:      41461  HIT:      34829  MISS:       6632
LLC PREFETCH  ACCESS:          0  HIT:          0  MISS:          0
LLC WRITEBACK ACCESS:      69241  HIT:      69241  MISS:          0
LLC PREFETCH  REQUESTED:          0  ISSUED:          0  USEFUL:          0  USELESS:          0
Major fault: 0 Minor fault: 5183

DRAM Statistics
 CHANNEL 0
 RQ ROW_BUFFER_HIT:          0  ROW_BUFFER_MISS:          0
 DBUS_CONGESTED:          0
 WQ ROW_BUFFER_HIT:          0  ROW_BUFFER_MISS:          0  FULL:          0


------------------------------------

=== CPU 0 Total Stats ===
* CPU 0 Total Accesses: 273662
* CPU 0 Total Misses: 22861
* CPU 0 Total Prefetches: 0
* CPU 0 Total Prefetch Hits: 0
* CPU 0 Total Non-useful Prefetches: 0
* CPU 0 Total Undecided Prefetches: 0

=== CPU 0 ROI Stats ===
* CPU 0 ROI Accesses: 273662
* CPU 0 ROI Misses: 22861
* CPU 0 ROI Prefetches: 0
* CPU 0 ROI Prefetch Hits: 0
* CPU 0 ROI Non-useful Prefetches: 0
* CPU 0 ROI Undecided Prefetches: 0

